Version 4
SHEET 1 880 680
WIRE -80 96 -80 64
WIRE -16 96 -16 64
WIRE 64 96 64 64
WIRE 128 96 128 64
WIRE 208 96 208 64
WIRE 272 96 272 64
WIRE 352 96 352 64
WIRE 416 96 416 64
WIRE -96 144 -128 144
WIRE 48 144 0 144
WIRE 192 144 144 144
WIRE 336 144 288 144
WIRE 464 144 432 144
WIRE 464 160 464 144
WIRE -128 224 -128 144
WIRE -48 240 -48 192
WIRE 96 240 96 192
WIRE 240 240 240 192
WIRE 384 240 384 192
FLAG 352 64 A0
FLAG 208 64 A1
FLAG 64 64 A2
FLAG -80 64 A3
FLAG 416 64 B0
FLAG 128 64 B2
FLAG -16 64 B3
FLAG 272 64 B1
FLAG 384 240 S0
FLAG 240 240 S1
FLAG 96 240 S2
FLAG -48 240 S3
FLAG -128 224 Cout
FLAG 464 160 0
FLAG -224 0 A0
FLAG -224 112 A1
FLAG -224 224 A2
FLAG -224 336 A3
FLAG -496 336 B3
FLAG -496 224 B2
FLAG -496 112 B1
FLAG -496 0 B0
FLAG -496 80 0
FLAG -224 80 0
FLAG -496 192 0
FLAG -224 192 0
FLAG -496 304 0
FLAG -224 304 0
FLAG -496 416 0
FLAG -224 416 0
SYMBOL Full_Adder_TG 384 144 R0
SYMATTR InstName X1
SYMBOL Full_Adder_TG 240 144 R0
SYMATTR InstName X2
SYMBOL Full_Adder_TG 96 144 R0
SYMATTR InstName X3
SYMBOL Full_Adder_TG -48 144 R0
SYMATTR InstName X4
SYMBOL voltage -224 -16 M0
WINDOW 0 29 30 Left 2
WINDOW 3 22 85 Left 2
WINDOW 123 0 0 Left 0
WINDOW 39 0 0 Left 0
SYMATTR InstName V1
SYMATTR Value PULSE(5 0 0 10p 10p 20n 40n)
SYMBOL voltage -224 96 M0
WINDOW 0 30 36 Left 2
WINDOW 3 35 79 Left 2
WINDOW 123 0 0 Left 0
WINDOW 39 0 0 Left 0
SYMATTR InstName V2
SYMATTR Value 5
SYMBOL voltage -224 208 M0
WINDOW 0 33 35 Left 2
WINDOW 3 36 80 Left 2
WINDOW 123 0 0 Left 0
WINDOW 39 0 0 Left 0
SYMATTR InstName V3
SYMATTR Value 5
SYMBOL voltage -224 320 M0
WINDOW 0 30 30 Left 2
WINDOW 3 32 79 Left 2
WINDOW 123 0 0 Left 0
WINDOW 39 0 0 Left 0
SYMATTR InstName V4
SYMATTR Value 5
SYMBOL voltage -496 -16 M0
WINDOW 0 28 30 Left 2
WINDOW 3 32 81 Left 2
WINDOW 123 0 0 Left 0
WINDOW 39 0 0 Left 0
SYMATTR InstName V5
SYMATTR Value 5
SYMBOL voltage -496 96 M0
WINDOW 0 30 30 Left 2
WINDOW 3 34 81 Left 2
WINDOW 123 0 0 Left 0
WINDOW 39 0 0 Left 0
SYMATTR InstName V6
SYMATTR Value 0
SYMBOL voltage -496 208 M0
WINDOW 0 32 32 Left 2
WINDOW 3 33 82 Left 2
WINDOW 123 0 0 Left 0
WINDOW 39 0 0 Left 0
SYMATTR InstName V7
SYMATTR Value 0
SYMBOL voltage -496 320 M0
WINDOW 0 32 34 Left 2
WINDOW 3 33 82 Left 2
WINDOW 123 0 0 Left 0
WINDOW 39 0 0 Left 0
SYMATTR InstName V8
SYMATTR Value 0
TEXT -120 320 Left 2 !.lib "C:\\Users\\Satvir\\Documents\\LTspiceXVII\\Technology files\\ENGR3426\\engr3426.sub"
TEXT -120 352 Left 2 !.tran 40n
